Version 4
SHEET 1 1376 816
WIRE -128 64 -320 64
WIRE -32 64 -128 64
WIRE 176 64 48 64
WIRE 240 64 224 64
WIRE 320 64 240 64
WIRE 416 64 320 64
WIRE 496 64 416 64
WIRE 800 64 752 64
WIRE 928 64 800 64
WIRE 1104 64 992 64
WIRE 1264 64 1104 64
WIRE -320 112 -320 64
WIRE 800 160 800 64
WIRE 1104 160 1104 64
WIRE 800 288 800 240
WIRE -128 320 -128 64
WIRE 320 320 320 64
WIRE 416 320 416 64
WIRE 624 384 624 160
WIRE 800 384 800 368
WIRE 800 384 624 384
WIRE -320 656 -320 192
WIRE -128 656 -128 384
WIRE -128 656 -320 656
WIRE 320 656 320 384
WIRE 320 656 -128 656
WIRE 416 656 416 384
WIRE 416 656 320 656
WIRE 528 656 416 656
WIRE 624 656 624 384
WIRE 624 656 528 656
WIRE 1104 656 1104 224
WIRE 1104 656 624 656
WIRE 528 720 528 656
FLAG 528 720 0
FLAG 1264 64 Vout
IOPIN 1264 64 Out
SYMBOL voltage -320 96 R0
WINDOW 123 24 124 Left 2
WINDOW 39 0 0 Left 0
SYMATTR InstName V1
SYMATTR Value 250
SYMBOL diode 336 384 R180
WINDOW 0 24 64 Left 2
WINDOW 3 24 0 Left 2
SYMATTR InstName D1
SYMATTR Value 1N4007
SYMBOL diode 928 80 R270
WINDOW 0 32 32 VTop 2
WINDOW 3 0 32 VBottom 2
SYMATTR InstName D2
SYMATTR Value 1N4007
SYMBOL res 784 144 R0
SYMATTR InstName R1
SYMATTR Value 10k
SYMBOL res 784 272 R0
SYMATTR InstName R2
SYMATTR Value 10k
SYMBOL cap -144 320 R0
SYMATTR InstName C1
SYMATTR Value 1µ
SYMBOL cap 400 320 R0
SYMATTR InstName C2
SYMATTR Value 100µ
SYMBOL cap 1088 160 R0
SYMATTR InstName C3
SYMATTR Value 0.1µ
SYMBOL Regulators\\7812 624 64 R0
SYMATTR InstName U1
SYMBOL 1N5359B 208 64 R180
SYMATTR InstName U3
SYMBOL res 64 48 R90
WINDOW 0 0 56 VBottom 2
WINDOW 3 32 56 VTop 2
SYMATTR InstName R5
SYMATTR Value 10k
TEXT -128 744 Left 2 ;.tran 10n
TEXT -96 800 Left 2 !.include "C:\\Users\\asus\\AppData\\Local\\LTspice\\lib\\sub\\1n5359b_spice.lib"
TEXT -248 696 Left 2 !.dc V1 0 250
